16
C6H4(NH2)2
C 0.00068964 1.41618356 0.00000000
C -0.00068964 0.69391873 1.19497899
C 0.00068964 -0.69391873 1.19497899
C -0.00068964 -1.41618356 0.00000000
C 0.00068964 -0.69391873 -1.19497899
C -0.00068964 0.69391873 -1.19497899
H 0.31054592 3.25185986 0.82986429
H 0.31054592 3.25185986 -0.82986429
H -0.00752106 1.22419096 2.14078682
H 0.00752106 -1.22419096 2.14078682
N 0.06772003 -2.82022536 0.00000000
H 0.00752106 -1.22419096 -2.14078682
H -0.00752106 1.22419096 -2.14078682
N -0.06772003 2.82022536 -0.00000000
H -0.31054592 -3.25185986 0.82986429
H -0.31054592 -3.25185986 -0.82986429