14
C6H4(OH)2
C 1.20720217 -0.70065789 0.00000000
C 1.20720217 0.68947114 0.00000000
C 0.00509579 1.38532901 0.00000000
C -1.20720217 0.70065789 0.00000000
C -1.20720217 -0.68947114 0.00000000
C -0.00509579 -1.38532901 0.00000000
O 2.42158347 -1.33812988 0.00000000
H 2.15154731 1.21736109 0.00000000
H 0.01538568 2.47005037 0.00000000
O -2.42158347 1.33812988 0.00000000
H -2.15154731 -1.21736109 0.00000000
H -0.01538568 -2.47005037 0.00000000
H -2.28522040 2.29168294 0.00000000
H 2.28522040 -2.29168294 0.00000000