14
C6H5CH2-(o)
C 0.000000 0.000000 -1.869617
C 0.000000 1.196338 -1.157448
C 0.000000 1.187286 0.236430
C 0.000000 0.000000 1.011928
C 0.000000 -1.187286 0.236430
C 0.000000 -1.196338 -1.157448
H 0.000000 0.000000 -2.955014
H 0.000000 2.142146 -1.693820
H 0.000000 2.121947 0.786942
H 0.000000 -2.121947 0.786942
H 0.000000 -2.142146 -1.693820
C 0.000000 0.000000 2.483490
H 0.932550 0.000000 3.033092
H -0.932550 0.000000 3.033092