12
C6H5O+
C 0.00000000 0.00000000 -1.73768605
C 0.00000000 1.25414149 -1.07344801
C 0.00000000 1.28098457 0.28272873
C 0.00000000 0.00000000 1.04611110
C 0.00000000 -1.28098457 0.28272873
C 0.00000000 -1.25414149 -1.07344801
H 0.00000000 0.00000000 -2.82329964
H 0.00000000 2.16384939 -1.65924881
H 0.00000000 2.19545929 0.86376005
H 0.00000000 -2.19545929 0.86376005
H 0.00000000 -2.16384939 -1.65924881
O 0.00000000 0.00000000 2.25654478