15
C6H5CH3
C 0.00427725 0.91099631 0.00000000
C 0.00734300 0.19349167 1.19730125
C 0.00734300 -1.19662177 1.20029486
C 0.00631594 -1.89799658 -0.00000000
C 0.00734300 -1.19662177 -1.20029486
C 0.00734300 0.19349167 -1.19730125
C -0.02810302 2.41726180 0.00000000
H 0.01224741 0.73041592 2.13919046
H 0.01200744 -1.73218916 2.14171530
H 0.00921256 -2.98067333 -0.00000000
H 0.01200744 -1.73218916 -2.14171530
H 0.01224741 0.73041592 -2.13919046
H -1.05761813 2.78755937 0.00000000
H 0.46436137 2.82632628 0.88334269
H 0.46436137 2.82632628 -0.88334269