14
C6H5NH2
C 0.00238281 0.93537128 0.00000000
C 0.00308528 0.21991924 1.20312775
C 0.00308528 -1.16770899 1.19773958
C 0.00327083 -1.87500590 0.00000000
C 0.00308528 -1.16770899 -1.19773958
C 0.00308528 0.21991924 -1.20312775
N 0.06046324 2.32811227 0.00000000
H 0.00762686 0.75852110 2.14411494
H 0.00211452 -1.70017548 2.14104633
H 0.00254513 -2.95686736 0.00000000
H 0.00211452 -1.70017548 -2.14104633
H 0.00762686 0.75852110 -2.14411494
H -0.27661955 2.77733747 -0.83661613
H -0.27661955 2.77733747 0.83661613