12
c6h6
C 0.00000000 1.20467177 0.69551377
C 0.00000000 0.00000000 1.39102632
C 0.00000000 -1.20467177 0.69551377
C 0.00000000 -1.20467177 -0.69551377
C 0.00000000 0.00000000 -1.39102632
C 0.00000000 1.20467177 -0.69551377
H 0.00000000 2.14253772 1.23699958
H 0.00000000 0.00000000 2.47398441
H 0.00000000 -2.14253772 1.23699958
H 0.00000000 -2.14253772 -1.23699958
H 0.00000000 0.00000000 -2.47398441
H 0.00000000 2.14253772 -1.23699958